Version 4
SHEET 1 880 764
WIRE 16 64 0 64
WIRE -144 112 -272 112
WIRE 0 112 0 64
WIRE 0 112 -64 112
WIRE 96 112 0 112
WIRE 272 112 192 112
WIRE 96 144 64 144
WIRE 272 160 272 112
WIRE 64 176 64 144
WIRE -80 224 -80 160
WIRE 192 272 192 144
WIRE 272 272 272 240
WIRE 272 272 192 272
WIRE -272 304 -272 112
WIRE -256 304 -272 304
WIRE -128 320 -128 160
WIRE -80 320 -80 304
WIRE -80 320 -128 320
WIRE 0 320 0 112
WIRE 80 320 0 320
WIRE 272 320 160 320
WIRE 320 320 272 320
WIRE -272 336 -272 304
WIRE -80 336 -80 320
WIRE 272 368 272 320
WIRE -272 480 -272 416
WIRE 272 480 272 432
FLAG 272 480 0
FLAG -272 480 0
FLAG 320 320 Scope
IOPIN 320 320 Out
FLAG -256 304 V1
IOPIN -256 304 Out
FLAG 64 176 0
FLAG 16 64 reflex
IOPIN 16 64 Out
FLAG -80 336 0
SYMBOL cap 256 368 R0
SYMATTR InstName C1
SYMATTR Value 795pF
SYMBOL voltage -272 320 R0
WINDOW 39 279 -139 Left 2
WINDOW 0 -116 215 Left 2
WINDOW 3 -51 216 Left 2
SYMATTR Value2 AC 10
SYMATTR InstName V1
SYMATTR Value PULSE(0 1 2n 8.75n 8.75n 0 0 1)
SYMBOL ltline 144 128 R0
WINDOW 0 1 -25 Bottom 2
WINDOW 3 1 48 Bottom 2
SYMATTR InstName O1
SYMATTR Value TL
SYMBOL res 256 144 R0
SYMATTR InstName R2
SYMATTR Value 1Meg
SYMBOL res 176 304 R90
WINDOW 0 0 56 VBottom 2
WINDOW 3 32 56 VTop 2
SYMATTR InstName R3
SYMATTR Value 1
SYMBOL sw -160 112 R270
SYMATTR InstName S1
SYMBOL voltage -80 208 R0
WINDOW 123 0 0 Left 0
WINDOW 39 0 0 Left 0
SYMATTR InstName V2
SYMATTR Value PULSE(0 1 2n 1n 1n 17.5n 0 1)
TEXT -56 488 Left 2 !.tran 300ns
TEXT -248 416 Left 2 ;V1
TEXT -232 16 Left 2 !.model TL LTRA(len=1 R=0 L=0.22967u C=86.6184p)
TEXT -248 576 Left 2 ;.step param T list 0.175ns 1.75ns 8.175ns
TEXT -336 616 Left 2 !.model SW SW(Ron=1u Roff=10k Vt=1u Vh=0)
