Version 4
SHEET 1 1184 680
WIRE -192 48 -320 48
WIRE -16 48 -112 48
WIRE 288 48 -16 48
WIRE 512 48 368 48
WIRE 592 48 512 48
WIRE 768 48 656 48
WIRE 896 48 768 48
WIRE 960 48 896 48
WIRE 896 96 896 48
WIRE 288 144 240 144
WIRE 416 144 368 144
WIRE 512 192 512 48
WIRE 768 208 768 48
WIRE 240 240 240 144
WIRE 240 240 192 240
WIRE 288 240 240 240
WIRE 416 240 416 144
WIRE 416 240 352 240
WIRE 448 240 416 240
WIRE 896 256 896 176
WIRE 960 256 896 256
WIRE 192 304 192 240
WIRE -320 320 -320 48
WIRE -16 320 -16 48
WIRE 896 320 896 256
WIRE -320 464 -320 400
WIRE -16 464 -16 384
WIRE -16 464 -320 464
WIRE 192 464 192 384
WIRE 192 464 -16 464
WIRE 512 464 512 288
WIRE 512 464 192 464
WIRE 768 464 768 272
WIRE 768 464 512 464
WIRE 896 464 896 400
WIRE 896 464 768 464
WIRE 192 544 192 464
FLAG 192 544 0
FLAG 960 48 HV
IOPIN 960 48 Out
FLAG 960 256 HV_MONITOR
IOPIN 960 256 Out
SYMBOL res -96 32 R90
WINDOW 0 0 56 VBottom 2
WINDOW 3 32 56 VTop 2
SYMATTR InstName R1
SYMATTR Value 10
SYMBOL res 912 192 R180
WINDOW 0 36 76 Left 2
WINDOW 3 36 40 Left 2
SYMATTR InstName R2
SYMATTR Value 150k
SYMBOL res 912 416 R180
WINDOW 0 36 76 Left 2
WINDOW 3 36 40 Left 2
SYMATTR InstName R3
SYMATTR Value 4k7
SYMBOL polcap -32 320 R0
WINDOW 3 24 56 Left 2
SYMATTR InstName C1
SYMATTR Value 330µ
SYMATTR Description Capacitor
SYMATTR Type cap
SYMATTR SpiceLine V=6.3 Irms=400m Rser=0.2 Lser=0 mfg="Panasonic" pn="ECA0JFQ331" type="Al electrolytic"
SYMBOL cap 352 224 R90
WINDOW 0 0 32 VBottom 2
WINDOW 3 32 32 VTop 2
SYMATTR InstName C2
SYMATTR Value 100n
SYMBOL cap 784 272 R180
WINDOW 0 24 56 Left 2
WINDOW 3 24 8 Left 2
SYMATTR InstName C3
SYMATTR Value 220n
SYMBOL ind 272 64 R270
WINDOW 0 32 56 VTop 2
WINDOW 3 5 56 VBottom 2
SYMATTR InstName L1
SYMATTR Value 4.7mH
SYMBOL diode 592 64 R270
WINDOW 0 32 32 VTop 2
WINDOW 3 0 32 VBottom 2
SYMATTR InstName D1
SYMATTR Value RF01VM2S
SYMBOL voltage 192 288 R0
WINDOW 123 0 0 Left 0
WINDOW 39 0 0 Left 0
SYMATTR InstName V1
SYMATTR Value PULSE(0V 5V 0 100n 100n {T} 100u)
SYMBOL Misc\\battery -320 304 R0
WINDOW 123 0 0 Left 0
WINDOW 39 0 0 Left 0
SYMATTR InstName V2
SYMATTR Value 5V
SYMBOL npn 448 192 R0
SYMATTR InstName Q1
SYMATTR Value 2N5550
SYMBOL res 384 128 R90
WINDOW 0 0 56 VBottom 2
WINDOW 3 32 56 VTop 2
SYMATTR InstName R4
SYMATTR Value 1k
TEXT -320 576 Left 2 !.step param T 0 80u 20u
TEXT -354 596 Left 2 !.tran 0.25
